# RIV package for  MODFLOW-2005, generated by Flopy.
      5202         0
      5202         0 # stress period 1
         1         1         1          734.33          5000.0          731.33
         1         1         2          732.44          5000.0          729.44
         1         1         4          730.05          5000.0          727.05
         1         1         5          728.94          5000.0          725.94
         1         1         6          728.53          5000.0          725.53
         1         1         7          727.25          5000.0          724.25
         1         1         8          727.25          5000.0          724.25
         1         1         9          725.55          5000.0          722.55
         1         1        10          724.38          5000.0          721.38
         1         1        11          722.51          5000.0          719.51
         1         1        12          721.45          5000.0          718.45
         1         1        45          708.52          5000.0          705.52
         1         1        78           633.8          5000.0           630.8
         1         1        96          671.25          5000.0          668.25
         1         1        97          660.82          5000.0          657.82
         1         1        98          640.77          5000.0          637.77
         1         1        99          625.25          5000.0          622.25
         1         1       100          609.76          5000.0          606.76
         1         1       101          599.63          5000.0          596.63
         1         1       102          608.94          5000.0          605.94
         1         1       107          581.98          5000.0          578.98
         1         1       120          630.44          5000.0          627.44
         1         1       139          707.57          5000.0          704.57
         1         1       151          733.27          5000.0          730.27
         1         1       152          733.73          5000.0          730.73
         1         1       153          733.76          5000.0          730.76
         1         1       180          755.71          5000.0          752.71
         1         1       181          755.71          5000.0          752.71
         1         1       195           653.1          5000.0           650.1
         1         2         1          734.33          5000.0          731.33
         1         2         2          734.33          5000.0          731.33
         1         2         6          728.53          5000.0          725.53
         1         2         8          727.25          5000.0          724.25
         1         2        12          720.76          5000.0          717.76
         1         2        13          720.57          5000.0          717.57
         1         2        44          710.66          5000.0          707.66
         1         2        45          710.66          5000.0          707.66
         1         2        78          641.28          5000.0          638.28
         1         2        79           645.0          5000.0           642.0
         1         2        94          680.48          5000.0          677.48
         1         2        95          676.92          5000.0          673.92
         1         2        96          675.53          5000.0          672.53
         1         2       101          589.74          5000.0          586.74
         1         2       107          582.23          5000.0          579.23
         1         2       120           625.0          5000.0           622.0
         1         2       138          707.57          5000.0          704.57
         1         2       139          707.57          5000.0          704.57
         1         2       150          730.77          5000.0          727.77
         1         2       151          724.94          5000.0          721.94
         1         2       180          755.71          5000.0          752.71
         1         2       181          755.71          5000.0          752.71
         1         2       195          650.76          5000.0          647.76
         1         3        13          719.54          5000.0          716.54
         1         3        14          718.77          5000.0          715.77
         1         3        43          716.73          5000.0          713.73
         1         3        44          716.73          5000.0          713.73
         1         3        78          645.08          5000.0          642.08
         1         3        79           645.0          5000.0           642.0
         1         3        92          699.77          5000.0          696.77
         1         3        94          687.22          5000.0          684.22
         1         3        95          679.55          5000.0          676.55
         1         3       101          585.65          5000.0          582.65
         1         3       107          582.03          5000.0          579.03
         1         3       118          617.62          5000.0          614.62
         1         3       119          617.62          5000.0          614.62
         1         3       120          625.97          5000.0          622.97
         1         3       138          707.05          5000.0          704.05
         1         3       150          723.63          5000.0          720.63
         1         3       151          723.63          5000.0          720.63
         1         3       180          722.14          5000.0          719.14
         1         3       181          755.71          5000.0          752.71
         1         3       193           696.6          5000.0           693.6
         1         3       195          650.76          5000.0          647.76
         1         4        14          717.28          5000.0          714.28
         1         4        17          714.56          5000.0          711.56
         1         4        18           715.5          5000.0           712.5
         1         4        78          648.52          5000.0          645.52
         1         4        92          699.31          5000.0          696.31
         1         4        93          694.86          5000.0          691.86
         1         4        94          692.38          5000.0          689.38
         1         4       101          585.65          5000.0          582.65
         1         4       102          585.65          5000.0          582.65
         1         4       103          585.65          5000.0          582.65
         1         4       106          581.59          5000.0          578.59
         1         4       107          581.95          5000.0          578.95
         1         4       117          615.81          5000.0          612.81
         1         4       118          615.81          5000.0          612.81
         1         4       138          705.11          5000.0          702.11
         1         4       139           701.0          5000.0           698.0
         1         4       150          717.66          5000.0          714.66
         1         4       151          718.03          5000.0          715.03
         1         4       179          714.08          5000.0          711.08
         1         4       180           714.0          5000.0           711.0
         1         4       193           688.0          5000.0           685.0
         1         4       194          681.48          5000.0          678.48
         1         4       195          650.76          5000.0          647.76
         1         4       196          650.76          5000.0          647.76
         1         5        14          717.28          5000.0          714.28
         1         5        15          715.13          5000.0          712.13
         1         5        16           714.2          5000.0           711.2
         1         5        17          712.88          5000.0          709.88
         1         5        18          712.62          5000.0          709.62
         1         5        76          652.57          5000.0          649.57
         1         5        77          652.13          5000.0          649.13
         1         5        78          651.25          5000.0          648.25
         1         5       103          585.53          5000.0          582.53
         1         5       104          585.12          5000.0          582.12
         1         5       105           581.5          5000.0           578.5
         1         5       106          581.56          5000.0          578.56
         1         5       117          610.87          5000.0          607.87
         1         5       139          697.24          5000.0          694.24
         1         5       140          697.24          5000.0          694.24
         1         5       150          717.43          5000.0          714.43
         1         5       180          701.49          5000.0          698.49
         1         5       181          693.35          5000.0          690.35
         1         5       182          687.56          5000.0          684.56
         1         5       194          668.82          5000.0          665.82
         1         5       195          650.76          5000.0          647.76
         1         5       196          650.76          5000.0          647.76
         1         6        17          711.82          5000.0          708.82
         1         6        18          710.41          5000.0          707.41
         1         6        19          709.17          5000.0          706.17
         1         6        20          707.29          5000.0          704.29
         1         6        21          706.31          5000.0          703.31
         1         6        76          655.89          5000.0          652.89
         1         6       104          583.32          5000.0          580.32
         1         6       105           581.5          5000.0           578.5
         1         6       106          581.56          5000.0          578.56
         1         6       116          607.16          5000.0          604.16
         1         6       117          609.21          5000.0          606.21
         1         6       139          694.16          5000.0          691.16
         1         6       140          694.28          5000.0          691.28
         1         6       143          696.46          5000.0          693.46
         1         6       150          717.43          5000.0          714.43
         1         6       163          766.54          5000.0          763.54
         1         6       180          695.77          5000.0          692.77
         1         6       181          694.43          5000.0          691.43
         1         6       182          687.56          5000.0          684.56
         1         6       183          677.88          5000.0          674.88
         1         6       192          653.03          5000.0          650.03
         1         6       193          650.76          5000.0          647.76
         1         6       194          650.76          5000.0          647.76
         1         6       195          650.76          5000.0          647.76
         1         7        17          714.22          5000.0          711.22
         1         7        18          714.22          5000.0          711.22
         1         7        20          707.78          5000.0          704.78
         1         7        21          705.41          5000.0          702.41
         1         7        57           727.1          5000.0           724.1
         1         7        58          728.91          5000.0          725.91
         1         7        73          663.87          5000.0          660.87
         1         7        74          662.02          5000.0          659.02
         1         7        75          658.46          5000.0          655.46
         1         7        76          658.46          5000.0          655.46
         1         7       106          582.19          5000.0          579.19
         1         7       116          607.16          5000.0          604.16
         1         7       128          761.19          5000.0          758.19
         1         7       129          753.38          5000.0          750.38
         1         7       138          688.75          5000.0          685.75
         1         7       139          689.83          5000.0          686.83
         1         7       142          694.06          5000.0          691.06
         1         7       143          695.46          5000.0          692.46
         1         7       150          717.43          5000.0          714.43
         1         7       163          760.38          5000.0          757.38
         1         7       172          789.58          5000.0          786.58
         1         7       173          796.93          5000.0          793.93
         1         7       183          677.88          5000.0          674.88
         1         7       190          650.76          5000.0          647.76
         1         7       191          652.84          5000.0          649.84
         1         7       192          650.76          5000.0          647.76
         1         7       193          650.76          5000.0          647.76
         1         8        16          718.14          5000.0          715.14
         1         8        17          718.14          5000.0          715.14
         1         8        21          705.41          5000.0          702.41
         1         8        22          705.41          5000.0          702.41
         1         8        23          704.85          5000.0          701.85
         1         8        52          756.34          5000.0          753.34
         1         8        53          749.93          5000.0          746.93
         1         8        54           744.5          5000.0           741.5
         1         8        55          739.96          5000.0          736.96
         1         8        56          735.42          5000.0          732.42
         1         8        57          731.65          5000.0          728.65
         1         8        58          722.62          5000.0          719.62
         1         8        59          717.62          5000.0          714.62
         1         8        60          715.63          5000.0          712.63
         1         8        61           711.8          5000.0           708.8
         1         8        62          705.85          5000.0          702.85
         1         8        63          705.54          5000.0          702.54
         1         8        64          701.21          5000.0          698.21
         1         8        65           698.5          5000.0           695.5
         1         8        66          695.57          5000.0          692.57
         1         8        67          687.59          5000.0          684.59
         1         8        68          685.44          5000.0          682.44
         1         8        69          679.04          5000.0          676.04
         1         8        70          673.95          5000.0          670.95
         1         8        71          668.45          5000.0          665.45
         1         8        72           667.3          5000.0           664.3
         1         8        73           667.3          5000.0           664.3
         1         8       106          582.11          5000.0          579.11
         1         8       115          600.85          5000.0          597.85
         1         8       116          601.28          5000.0          598.28
         1         8       128           731.6          5000.0           728.6
         1         8       137          686.42          5000.0          683.42
         1         8       138          679.74          5000.0          676.74
         1         8       140           688.2          5000.0           685.2
         1         8       141           686.6          5000.0           683.6
         1         8       142          690.11          5000.0          687.11
         1         8       148          706.89          5000.0          703.89
         1         8       149          712.08          5000.0          709.08
         1         8       150          717.43          5000.0          714.43
         1         8       163          756.42          5000.0          753.42
         1         8       170          774.75          5000.0          771.75
         1         8       171          774.75          5000.0          771.75
         1         8       172          783.62          5000.0          780.62
         1         8       182          667.97          5000.0          664.97
         1         8       183          670.46          5000.0          667.46
         1         8       189          650.76          5000.0          647.76
         1         8       190          650.76          5000.0          647.76
         1         9        13          737.62          5000.0          734.62
         1         9        14           733.1          5000.0           730.1
         1         9        15           729.0          5000.0           726.0
         1         9        16          726.94          5000.0          723.94
         1         9        23          702.72          5000.0          699.72
         1         9        24          700.52          5000.0          697.52
         1         9        34          699.68          5000.0          696.68
         1         9        66          694.02          5000.0          691.02
         1         9        67          689.49          5000.0          686.49
         1         9        68          682.35          5000.0          679.35
         1         9        69          682.35          5000.0          679.35
         1         9       101          598.96          5000.0          595.96
         1         9       102          587.87          5000.0          584.87
         1         9       103           581.5          5000.0           578.5
         1         9       106          582.01          5000.0          579.01
         1         9       115          600.19          5000.0          597.19
         1         9       128          720.56          5000.0          717.56
         1         9       138          678.86          5000.0          675.86
         1         9       140           682.9          5000.0           679.9
         1         9       141          686.79          5000.0          683.79
         1         9       148          706.82          5000.0          703.82
         1         9       149          712.08          5000.0          709.08
         1         9       162          746.63          5000.0          743.63
         1         9       163          756.25          5000.0          753.25
         1         9       170          766.39          5000.0          763.39
         1         9       171          766.39          5000.0          763.39
         1         9       181          667.97          5000.0          664.97
         1         9       182          667.97          5000.0          664.97
         1         9       189          650.76          5000.0          647.76
         1        10        12           744.3          5000.0           741.3
         1        10        13          737.39          5000.0          734.39
         1        10        14           735.0          5000.0           732.0
         1        10        15          729.54          5000.0          726.54
         1        10        23          700.25          5000.0          697.25
         1        10        24          700.25          5000.0          697.25
         1        10        34          697.24          5000.0          694.24
         1        10        80          651.71          5000.0          648.71
         1        10       103           581.5          5000.0           578.5
         1        10       104          581.93          5000.0          578.93
         1        10       106          581.97          5000.0          578.97
         1        10       115          600.19          5000.0          597.19
         1        10       128           712.7          5000.0           709.7
         1        10       137          675.61          5000.0          672.61
         1        10       138          675.59          5000.0          672.59
         1        10       139          677.66          5000.0          674.66
         1        10       140           679.0          5000.0           676.0
         1        10       148           706.6          5000.0           703.6
         1        10       151          704.77          5000.0          701.77
         1        10       156          726.74          5000.0          723.74
         1        10       162          736.64          5000.0          733.64
         1        10       171          755.09          5000.0          752.09
         1        10       172          751.88          5000.0          748.88
         1        10       181          667.97          5000.0          664.97
         1        10       182          667.78          5000.0          664.78
         1        10       189          650.59          5000.0          647.59
         1        11        11          750.11          5000.0          747.11
         1        11        12           744.5          5000.0           741.5
         1        11        23          697.75          5000.0          694.75
         1        11        34          694.67          5000.0          691.67
         1        11        80          651.55          5000.0          648.55
         1        11       104          581.85          5000.0          578.85
         1        11       105           581.8          5000.0           578.8
         1        11       106          581.81          5000.0          578.81
         1        11       114          592.87          5000.0          589.87
         1        11       115          592.18          5000.0          589.18
         1        11       128          703.31          5000.0          700.31
         1        11       137          669.68          5000.0          666.68
         1        11       138           670.8          5000.0           667.8
         1        11       139          673.89          5000.0          670.89
         1        11       140          679.42          5000.0          676.42
         1        11       147          705.29          5000.0          702.29
         1        11       148          702.22          5000.0          699.22
         1        11       149          702.04          5000.0          699.04
         1        11       151          692.51          5000.0          689.51
         1        11       156          714.98          5000.0          711.98
         1        11       162          735.66          5000.0          732.66
         1        11       172          739.76          5000.0          736.76
         1        11       181          657.12          5000.0          654.12
         1        11       182          657.25          5000.0          654.25
         1        11       189          650.59          5000.0          647.59
         1        12        10          754.69          5000.0          751.69
         1        12        11          751.55          5000.0          748.55
         1        12        22          696.38          5000.0          693.38
         1        12        23          697.75          5000.0          694.75
         1        12        33           691.2          5000.0           688.2
         1        12        34          692.53          5000.0          689.53
         1        12        80          650.85          5000.0          647.85
         1        12       105          581.71          5000.0          578.71
         1        12       106          581.76          5000.0          578.76
         1        12       113          588.09          5000.0          585.09
         1        12       114          590.56          5000.0          587.56
         1        12       126          692.36          5000.0          689.36
         1        12       128          695.38          5000.0          692.38
         1        12       137          668.85          5000.0          665.85
         1        12       138          668.85          5000.0          665.85
         1        12       148          704.95          5000.0          701.95
         1        12       149          694.18          5000.0          691.18
         1        12       150          684.46          5000.0          681.46
         1        12       151          684.46          5000.0          681.46
         1        12       152          684.46          5000.0          681.46
         1        12       155          691.91          5000.0          688.91
         1        12       156          714.98          5000.0          711.98
         1        12       159           705.3          5000.0           702.3
         1        12       160          707.16          5000.0          704.16
         1        12       162           731.6          5000.0           728.6
         1        12       163          737.34          5000.0          734.34
         1        12       164          746.47          5000.0          743.47
         1        12       165          756.39          5000.0          753.39
         1        12       172           724.6          5000.0           721.6
         1        12       181          659.53          5000.0          656.53
         1        12       182          655.34          5000.0          652.34
         1        12       189          650.59          5000.0          647.59
         1        13        10           756.9          5000.0           753.9
         1        13        22          694.97          5000.0          691.97
         1        13        23          693.88          5000.0          690.88
         1        13        24          693.88          5000.0          690.88
         1        13        30          690.91          5000.0          687.91
         1        13        33          689.19          5000.0          686.19
         1        13        34          689.22          5000.0          686.22
         1        13        80          649.95          5000.0          646.95
         1        13        81          645.86          5000.0          642.86
         1        13       105          581.61          5000.0          578.61
         1        13       112          589.12          5000.0          586.12
         1        13       113           589.9          5000.0           586.9
         1        13       126          690.17          5000.0          687.17
         1        13       127          687.23          5000.0          684.23
         1        13       128          692.32          5000.0          689.32
         1        13       136          668.85          5000.0          665.85
         1        13       137          668.85          5000.0          665.85
         1        13       152          684.46          5000.0          681.46
         1        13       153          684.43          5000.0          681.43
         1        13       154          675.76          5000.0          672.76
         1        13       155          675.76          5000.0          672.76
         1        13       156          675.76          5000.0          672.76
         1        13       158          697.99          5000.0          694.99
         1        13       159          697.06          5000.0          694.06
         1        13       160          707.16          5000.0          704.16
         1        13       161          716.08          5000.0          713.08
         1        13       162          727.68          5000.0          724.68
         1        13       172          707.68          5000.0          704.68
         1        13       182          648.07          5000.0          645.07
         1        13       188          653.12          5000.0          650.12
         1        13       189          650.59          5000.0          647.59
         1        14         9          763.89          5000.0          760.89
         1        14        10          762.26          5000.0          759.26
         1        14        22          694.33          5000.0          691.33
         1        14        23          693.88          5000.0          690.88
         1        14        24          693.88          5000.0          690.88
         1        14        25          693.79          5000.0          690.79
         1        14        26          693.79          5000.0          690.79
         1        14        27          690.72          5000.0          687.72
         1        14        28          690.72          5000.0          687.72
         1        14        29          688.74          5000.0          685.74
         1        14        30          689.48          5000.0          686.48
         1        14        34          685.07          5000.0          682.07
         1        14        57          697.22          5000.0          694.22
         1        14        81          642.63          5000.0          639.63
         1        14        82          642.22          5000.0          639.22
         1        14       105          581.51          5000.0          578.51
         1        14       111          587.13          5000.0          584.13
         1        14       112          587.13          5000.0          584.13